22
Hello first change.
Last.
Very last.
New line.
Another line.