12345
Hello first change.
Last.
Very last.
New line.